VERS 190513 80 123457 L123457
MODE SEQ
NAME 
PFIL 0 0 0
LANG 0
UNIT MM X W X CM MR CPMM
FLOA
ENVD 2.0E+1 1 0
GFAC 0 0
GCAT OSAKAGASCHEMICAL MISC
XFLN 0. 0. 0.
YFLN 0.0 22.070704979145525 30.90523045170307
WAVL 0.4861327 0.5875618 0.6562725
RAIM 0 0 1 1 0 0 0 0 0
PUSH 0 0 0 0 0 0
SDMA 0 1 0
FTYP 0 0 3 3 0 0 0
ROPD 2
PICB 1
PWAV 2
POLS 1 0 1 0 0 1 0
GLRS 1 0
GSTD 0 100.000 100.000 100.000 100.000 100.000 100.000 0 1 1 0 0 1 1 1 1 1 1
NSCD 100 500 0 1.0E-3 5 1.0E-6 0 0 0 0 0 0 1000000 0 2
COFN QF "COATING.DAT" "SCATTER_PROFILE.DAT" "ABG_DATA.DAT" "PROFILE.GRD"
COFN COATING.DAT SCATTER_PROFILE.DAT ABG_DATA.DAT PROFILE.GRD
SURF 0
TYPE STANDARD
CURV 0.0
DISZ INFINITY
SURF 1 
    TYPE STANDARD 
    CURV 0.03539822995662689 
    DISZ 1.5 
    GLAS ___BLANK 1 0 1.58913 61.2
    DIAM 18.031727235645135 1 0 0 1 ""
SURF 2 
    TYPE STANDARD 
    CURV 0.0633312240242958 
    DISZ 15.280000686645508 
    DIAM 14.663525141163387 1 0 0 1 ""
SURF 3 
    TYPE STANDARD 
    CURV 0.02642706222832203 
    DISZ 10.539999008178711 
    GLAS ___BLANK 1 0 1.8061 40.9
    DIAM 13.890377611901716 1 0 0 1 ""
SURF 4 
    TYPE STANDARD 
    CURV -0.050581689924001694 
    DISZ 1.5300006866455078 
    GLAS ___BLANK 1 0 1.64769 33.8
    DIAM 13.25413870635828 1 0 0 1 ""
SURF 5 
    TYPE STANDARD 
    CURV -0.007039774674922228 
    DISZ 3.0900001525878906 
    DIAM 11.30567251320589 1 0 0 1 ""
SURF 6
    STOP
    TYPE STANDARD
    CURV 0.0
    DISZ 3.539999008178711
SURF 7 
    TYPE STANDARD 
    CURV -0.036310821771621704 
    DISZ 1.9399986267089844 
    GLAS ___BLANK 1 0 1.6727 32.1
    DIAM 9.84615764740822 1 0 0 1 ""
SURF 8 
    TYPE STANDARD 
    CURV 0.02182929404079914 
    DISZ 2.0 
    DIAM 10.747041874306118 1 0 0 1 ""
SURF 9 
    TYPE STANDARD 
    CURV -0.02166377753019333 
    DISZ 1.1000022888183594 
    GLAS ___BLANK 1 0 1.78472 25.7
    DIAM 10.44458516400841 1 0 0 1 ""
SURF 10 
    TYPE STANDARD 
    CURV 0.003612325293943286 
    DISZ 3.579998016357422 
    GLAS ___BLANK 1 0 1.7725 49.6
    DIAM 11.748965463271194 1 0 0 1 ""
SURF 11 
    TYPE STANDARD 
    CURV -0.04140786826610565 
    DISZ 0.10000228881835938 
    DIAM 11.869804041682217 1 0 0 1 ""
SURF 12 
    TYPE STANDARD 
    CURV 0.007425558753311634 
    DISZ 3.200000762939453 
    GLAS ___BLANK 1 0 1.7725 49.6
    DIAM 14.141745527292915 1 0 0 1 ""
SURF 13 
    TYPE STANDARD 
    CURV -0.021649707108736038 
    DISZ 37.83000183105469 
    DIAM 14.193953218619235 1 0 0 1 ""
SURF 14
TYPE STANDARD
CURV 0.
DISZ 0.0
DIAM 21.106820931884467
